grids/psse_3w_sample.raw
0,   100.00, 33, 0, 1, 60.00     / PSS(R)E-33.1    TUE, AUG 21 2012  14:49
PSS(R)E SAMPLE CASE
ALL DATA CATEGORIES WITH SEQUENCE DATA
   101,'NUC-A       ',  21.6000,2,   1,   1,   1,1.01000, -11.1098,1.10000,0.90000,1.10000,0.90000
   102,'NUC-B       ',  21.6000,2,   1,   1,   1,1.01000, -11.4618,1.10000,0.90000,1.10000,0.90000
   151,'NUCPLNT     ', 500.0000,1,   1,   1,   1,1.00214, -14.2498,1.10000,0.90000,1.10000,0.90000
   152,'MID500      ', 500.0000,1,   1,   2,   1,1.04356, -24.0707,1.10000,0.90000,1.10000,0.90000
   153,'MID230      ', 230.0000,1,   1,   3,   1,1.05661, -25.8107,1.10000,0.90000,1.10000,0.90000
   154,'DOWNTN      ', 230.0000,1,   1,   3,   1,0.99167, -33.2815,1.10000,0.90000,1.10000,0.90000
   155,'FACTS TE    ', 230.0000,1,   1,   4,   1,1.01704, -24.4272,1.10000,0.90000,1.10000,0.90000
   201,'HYDRO       ', 500.0000,1,   2,   7,   2,0.98987, -19.4302,1.10000,0.90000,1.10000,0.90000
   202,'EAST500     ', 500.0000,1,   2,   2,   2,1.02094, -26.3546,1.10000,0.90000,1.10000,0.90000
   203,'EAST230     ', 230.0000,1,   2,   8,   2,1.00000, -29.8395,1.10000,0.90000,1.10000,0.90000
   204,'SUB500      ', 500.0000,1,   2,   8,   2,1.02981, -31.6991,1.10000,0.90000,1.10000,0.90000
   205,'SUB230      ', 230.0000,1,   2,   8,   2,1.00000, -33.9795,1.10000,0.90000,1.10000,0.90000
   206,'URBGEN      ',  18.0000,2,   2,   8,   2,1.00000, -31.5246,1.10000,0.90000,1.10000,0.90000
   207,'DUPONT      ', 500.0000,1,   2,   7,   2,1.01356, -25.7406,1.10000,0.90000,1.10000,0.90000
   208,'URBANEAST208', 230.0000,4,   2,   8,   2,1.00000, -31.5246,1.10000,0.90000,1.10000,0.90000
   209,'URBANEAST209', 230.0000,4,   2,   8,   2,1.00000, -31.5246,1.10000,0.90000,1.10000,0.90000
   211,'HYDRO_G     ',  20.0000,2,   2,   7,   2,1.00000, -14.7742,1.10000,0.90000,1.10000,0.90000
   212,'INVERT1     ', 230.0000,1,   2,   7,   2,1.02695, -32.3559,1.10000,0.90000,1.10000,0.90000
   213,'INVERT2     ', 230.0000,1,   2,   7,   2,1.10677, -35.6216,1.10000,0.90000,1.10000,0.90000
   214,'LOADER      ', 230.0000,1,   2,   7,   2,1.07726, -37.0515,1.10000,0.90000,1.10000,0.90000
   215,'URBANEAST215',  18.0000,1,   2,   8,   2,0.98539, -33.9180,1.10000,0.90000,1.10000,0.90000
   216,'URBANEAST216', 230.0000,1,   2,   8,   2,0.99637, -33.9564,1.10000,0.90000,1.10000,0.90000
   217,'URBANEAST217', 230.0000,1,   2,   8,   2,0.99733, -33.9626,1.10000,0.90000,1.10000,0.90000
   218,'URBANEAST218', 230.0000,1,   2,   8,   2,0.99769, -33.9648,1.10000,0.90000,1.10000,0.90000
   301,'NORTH       ', 765.0000,4,   3,   5,   3,1.00000,   0.0000,1.10000,0.90000,1.10000,0.90000
   401,'COGEN-1     ', 500.0000,4,   4,   9,   4,1.00000,   0.0000,1.10000,0.90000,1.10000,0.90000
   402,'COGEN-2     ', 500.0000,4,   6,   9,   4,1.00000,   0.0000,1.10000,0.90000,1.10000,0.90000
  3001,'MINE        ', 230.0000,1,   5,   6,   5,1.02304,  -4.1197,1.10000,0.90000,1.10000,0.90000
  3002,'E. MINE     ', 500.0000,1,   5,   6,   5,0.99874,  -2.3920,1.10000,0.90000,1.10000,0.90000
  3003,'S. MINE     ', 230.0000,1,   5,   6,   5,1.01818,  -7.6304,1.10000,0.90000,1.10000,0.90000
  3004,'WEST        ', 500.0000,1,   5,   6,   5,1.01364, -18.6905,1.10000,0.90000,1.10000,0.90000
  3005,'WEST        ', 230.0000,1,   5,   2,   5,1.00451, -19.7007,1.10000,0.90000,1.10000,0.90000
  3006,'UPTOWN      ', 230.0000,1,   5,   4,   5,1.05661, -25.8107,1.10000,0.90000,1.10000,0.90000
  3007,'RURAL       ', 230.0000,1,   5,   4,   5,0.98380, -24.0287,1.10000,0.90000,1.10000,0.90000
  3008,'CATDOG      ', 230.0000,1,   5,   4,   5,0.99000, -25.5969,1.10000,0.90000,1.10000,0.90000
  3009,'URBNWEST3009', 230.0000,1,   5,   4,   5,0.99048, -25.6166,1.10000,0.90000,1.10000,0.90000
  3010,'INDMOTOR1   ',  21.6000,1,   5,   4,   5,0.96390,   1.1470,1.10000,0.90000,1.10000,0.90000
  3011,'MINE_G      ',  19.4000,3,   5,   6,   5,1.00000,   0.0000,1.10000,0.90000,1.10000,0.90000
  3012,'URBNWEST3012', 230.0000,4,   5,   4,   5,0.99048,   0.0000,1.10000,0.90000,1.10000,0.90000
  3018,'CATDOG_G    ',  13.8000,2,   5,   4,   5,0.99000, -21.8270,1.10000,0.90000,1.10000,0.90000
  3021,'WDUM        ',  18.0000,4,   3,   5,   3,1.00000, -20.5787,1.10000,0.90000,1.10000,0.90000
  3022,'EDUM        ',  18.0000,4,   3,   5,   3,1.00000, -19.8896,1.10000,0.90000,1.10000,0.90000
  9154,'INDGEN1     ',   4.1600,1,   1,   3,   1,0.98462, -32.5978,1.10000,0.90000,1.10000,0.90000
  9204,'INDMOTOR2   ',   0.5750,1,   2,   8,   2,0.98036, -35.3939,1.10000,0.90000,1.10000,0.90000
 93002,'INDGEN2     ',   0.6900,1,   5,   6,   5,0.96093,   3.6483,1.10000,0.90000,1.10000,0.90000
0 / END OF BUS DATA, BEGIN LOAD DATA
   152,'1 ',1,   1,   1,    60.000,    18.000,    43.417,    18.025,    41.890,   -17.567,   1,1,0
   153,'1 ',1,   1,   1,    10.000,     5.000,     0.000,     0.000,     0.000,     0.000,   1,1,0
   154,'1 ',1,   1,   1,    20.000,    10.000,     0.000,     0.000,     0.000,     0.000,   1,1,0
   154,'2 ',1,   1,   1,    12.500,    10.000,     0.000,     0.000,     0.000,     0.000,   1,1,0
   154,'3 ',1,   1,   1,    12.500,     5.000,     0.000,     0.000,     0.000,     0.000,   1,1,0
   154,'MO',1,   1,   1,     5.000,     4.000,     0.000,     0.000,     0.000,     0.000,   1,1,0
   201,'SC',1,   2,   7,     0.000,     0.000,     0.000,     0.000,     0.000,     0.000,   2,1,0
   203,'1 ',1,   2,   2,    25.000,    12.500,     0.000,     0.000,     0.000,     0.000,   2,1,0
   205,'1 ',1,   2,   2,    90.000,    30.000,     0.000,     0.000,     0.000,     0.000,   2,1,0
   205,'B ',1,   2,   2,     4.500,     0.250,     5.500,     1.250,     1.000,     0.500,   2,1,0
   205,'C ',1,   2,   2,     3.000,     0.750,     2.250,     0.250,     1.750,     1.500,   2,1,0
   214,'1 ',1,   2,   2,    25.000,     3.750,     0.000,     0.000,     0.000,     0.000,   2,1,0
   215,'U1',1,   2,   4,     0.000,     7.000,     0.000,     0.000,     0.000,     0.000,   2,1,0
   216,'U1',1,   2,   4,     0.000,     0.600,     0.000,     0.000,     0.000,     0.000,   2,1,0
   217,'U1',1,   2,   4,     0.000,     0.500,     0.000,     0.000,     0.000,     0.000,   2,1,0
   218,'U1',1,   2,   4,     0.000,     0.450,     0.000,     0.000,     0.000,     0.000,   2,1,0
  3005,'1 ',1,   5,   5,     5.000,     2.500,     0.000,     0.000,     0.000,     0.000,   5,1,0
  3007,'1 ',1,   5,   5,    10.000,     3.750,     0.000,     0.000,     0.000,     0.000,   5,1,0
  3008,'1 ',1,   5,   5,    10.000,     3.750,     0.000,     0.000,     0.000,     0.000,   5,1,0
  3009,'1 ',1,   5,   4,     0.055,     0.045,     0.000,     0.000,     0.000,     0.000,   5,1,0
  3010,'1 ',1,   5,   4,     0.600,     0.250,     0.000,     0.000,     0.000,     0.000,   5,1,0
0 / END OF LOAD DATA, BEGIN FIXED SHUNT DATA
   151,'F1',1,     0.000,     0.000
   151,'F2',1,     0.000,     0.000
   151,'F3',1,     0.000,     0.000
   152,'1 ',1,     0.000,     0.000
   154,'1 ',1,     0.000,     0.000
   201,'1 ',1,     0.000,     0.000
   203,'1 ',1,     0.000,     0.000
   203,'2 ',1,     0.000,     0.000
   205,'1 ',1,     0.000,     0.000
   212,'1 ',1,     0.000,     0.000
   213,'1 ',1,     0.000,     0.000
  3021,'1 ',1,     0.000,     0.000
  3022,'1 ',1,     0.000,     0.000
0 / END OF FIXED SHUNT DATA, BEGIN GENERATOR DATA
   101,'1 ',    37.500,     6.315,    20.000,    -5.000,1.01000,     0,   900.000, 1.00000E-2, 3.00000E-1, 0.00000E+0, 0.00000E+0,1.00000,1,  100.0,    40.000,     2.500,   1,0.1289,   2,0.2524,   3,0.1031,   4,0.5156
   102,'1 ',    32.500,     5.654,    20.500,    -5.500,1.01000,     0,   950.000, 1.05000E-2, 3.20000E-1, 0.00000E+0, 0.00000E+0,1.00000,1,  100.0,    35.000,     1.650,   1,0.3647,   2,0.1838,   3,0.0751,   4,0.3764
   206,'1 ',    40.000,    14.196,    25.000,   -20.000,1.00000,     0,  1000.000, 1.06000E-2, 2.51000E-1, 0.00000E+0, 0.00000E+0,1.00000,1,  100.0,    42.500,     2.500,   1,0.1034,   2,0.4006,   3,0.0825,   4,0.4135
   211,'1 ',    30.000,     4.405,    25.500,    -5.000,1.00000,     0,   725.000, 1.08000E-2, 2.62000E-1, 0.00000E+0, 0.00000E+0,1.00000,1,  100.0,    30.800,     1.500,   1,0.1423,   2,0.2210,   3,0.1842,   4,0.4525
   301,'1 ',    49.844,    14.977,    35.000,   -32.500,1.00000,     0,  1067.000, 1.09000E-2, 2.30000E-1, 1.40000E-2, 1.26000E-1,1.02500,1,   98.0,    50.500,    16.000,   1,0.1118,   2,0.2184,   3,0.0893,   4,0.5805
   301,'2 ',    49.844,    14.977,    35.500,   -30.000,1.00000,     0,  1070.000, 1.10000E-2, 2.40000E-1, 1.10000E-2, 1.27000E-1,1.02600,1,   98.0,    50.550,    16.050,   1,0.1173,   2,0.3200,   3,0.0936,   4,0.4691
   301,'3 ',    49.844,    14.977,    36.000,   -30.000,1.00000,     0,  1075.000, 8.00000E-3, 2.50000E-1, 1.20000E-2, 1.28000E-1,1.02700,1,   98.0,    50.600,    16.100,   1,0.1260,   2,0.2268,   3,0.1827,   4,0.4644
   401,'1 ',    16.050,     7.116,    30.000,    -5.000,1.00000,     0,   600.000, 1.23000E-2, 2.22300E-1, 0.00000E+0, 0.00000E+0,1.00000,1,   90.0,    17.500,     1.250,   1,0.1625,   2,0.2423,   3,0.0990,   4,0.4962
   402,'1 ',    16.050,     7.116,    30.500,    -5.500,1.00000,     0,   610.000, 4.50000E-3, 2.43200E-1, 0.00000E+0, 0.00000E+0,1.00000,1,   91.0,    17.550,     1.300,   1,0.1588,   2,0.2117,   3,0.1959,   4,0.4335
  3011,'1 ',    66.134,     7.759,    31.000,    -6.000,1.00000,     0,  1050.000, 7.60000E-3, 3.54300E-1, 0.00000E+0, 0.00000E+0,1.00000,1,   92.0,    70.000,     5.000,   1,0.1452,   2,0.1926,   3,0.2677,   4,0.3945
  3018,'1 ',    20.000,    -0.031,    15.000,    -7.500,0.99000,     0,   530.000, 8.70000E-2, 3.56300E-1, 0.00000E+0, 0.00000E+0,1.00000,1,   92.5,    25.000,     2.500,   1,0.1043,   2,0.2037,   3,0.2749,   4,0.4171
  3018,'2 ',     5.000,    -0.008,     3.750,    -3.750,0.99000,     0,   120.000, 2.40000E-2, 3.55300E-1, 0.00000E+0, 0.00000E+0,1.00000,1,   92.5,     5.500,     1.000,   1,0.3003,   2,0.1358,   3,0.2857,   4,0.2782
0 / END OF GENERATOR DATA, BEGIN BRANCH DATA
   151,   152,'1 ', 1.30000E-3, 2.30000E-2, 1.75000E+0, 1200.00, 1100.00, 1000.00,  0.01000, -0.25000,  0.01100, -0.15000,1,2, 150.00,   1,0.2000,   2,0.3000,   3,0.4000,   4,0.1000
   151,   152,'2 ', 1.30500E-3, 2.30500E-2, 1.75500E+0, 1205.00, 1105.00, 1005.00,  0.01300, -0.25100,  0.01200, -0.02000,1,2, 149.00,   5,0.2315,   1,0.3056,   2,0.3704,   3,0.0926
   151,   201,'1 ', 5.00000E-4, 7.50000E-3, 6.00000E-1, 1206.00, 1106.00, 1006.00,  0.00000,  0.00000,  0.00000, -1.00000,1,2, 100.00,   2,0.3600,   3,0.2400,   4,0.3200,   5,0.0800
   152,   202,'1 ', 4.00000E-4, 5.00000E-3, 4.75000E-1, 1207.00, 1107.00, 1007.00,  0.00000,  0.00000,  0.00000,  0.00000,1,1, 200.00,   1,0.3939,   2,0.2273,   3,0.3030,   4,0.0758
   152,  3004,'1 ', 1.50000E-3, 1.50000E-2, 1.25000E+0,    0.00,    0.00,    0.00,  0.00000,  0.00000,  0.00000,  0.00000,1,2, 201.00,   5,0.2379,   1,0.3033,   2,0.3667,   3,0.0922
   153,   154,'2 ', 3.00000E-3, 2.70000E-2, 7.50000E-2,  350.00,    0.00,    0.00,  0.00000,  0.00000,  0.00000,  0.00000,1,2,  80.00,   2,0.2727,   3,0.2727,   4,0.3636,   5,0.0909
   153,  3006,'1 ', 0.00000E+0, 5.00000E-5, 0.00000E+0,    0.00,    0.00,    0.00,  0.00000,  0.00000,  0.00000,  0.00000,1,2,   0.00,   1,0.3443,   2,0.2459,   3,0.3279,   4,0.0820
   154,   155,'1 ', 2.50000E-3, 2.25000E-2, 5.00000E-2,  400.00,    0.00,    0.00,  0.00000,  0.00000,  0.00000,  0.00000,1,1,  81.00,   5,0.1914,   1,0.2535,   2,0.3065,   3,0.2486
   154,   203,'1 ', 2.00000E-3, 2.00000E-2, 5.00000E-2,  400.00,    0.00,    0.00,  0.00000,  0.00000,  0.00000,  0.00000,1,2, 100.00,   2,0.2000,   3,0.3000,   4,0.4000,   5,0.1000
   154,   205,'1 ', 1.65000E-4, 1.66500E-3, 4.50000E-2,  600.00,    0.00,    0.00,  0.00000,  0.00000,  0.00000,  0.00000,1,2, 120.00,   1,0.1667,   2,0.2500,   3,0.3333,   4,0.2500
   154,  3008,'1 ', 1.35000E-3, 1.10000E-2, 1.50000E-1,  800.00,    0.00,    0.00,  0.00000,  0.00000,  0.00000,  0.00000,1,2, 119.00,   5,0.1925,   1,0.2550,   2,0.3083,   3,0.2442
   201,   202,'1 ', 1.00000E-3, 1.25000E-2, 1.00000E+0, 1200.00,    0.00,    0.00,  0.00000,  0.00000,  0.00000,  0.00000,1,2, 300.00,   2,0.1905,   3,0.2857,   4,0.3810,   5,0.1429
   201,   207,'C1', 7.50000E-4, 7.50000E-3, 6.25000E-1, 1200.00,    0.00,    0.00,  0.00000,  0.00000,  0.00000,  0.00000,1,2, 250.00,   1,0.2500,   2,0.3750,   3,0.2500,   4,0.1250
   203,   205,'1 ', 2.50000E-3, 2.25000E-2, 4.00000E-2,  200.00,    0.00,    0.00,  0.00000,  0.00000,  0.00000,  0.00000,1,1,  70.00,   5,0.1925,   1,0.2550,   2,0.3083,   3,0.2442
   204,   207,'C2', 7.50000E-4, 7.50000E-3, 6.25000E-1, 1200.00,    0.00,    0.00,  0.00000,  0.00000,  0.00000,  0.00000,1,2, 300.00,   2,0.2000,   3,0.3000,   4,0.4000,   5,0.1000
   205,   212,'1 ', 0.00000E+0, 5.00000E-3, 0.00000E+0, 1250.00,    0.00,    0.00,  0.00000,  0.00000,  0.00000,  0.00000,1,1,  71.00,   1,0.2000,   2,0.3000,   3,0.4000,   4,0.1000
   205,   214,'2 ', 1.00000E-3, 1.25000E-2, 1.00000E+0, 1200.00,    0.00,    0.00,  0.00000,  0.00000,  0.00000,  0.00000,1,2, 100.00,   5,0.2100,   1,0.2782,   2,0.3364,   3,0.1755
   205,   216,'3 ', 2.50000E-3, 2.25000E-2, 4.00000E-2,  200.00,    0.00,    0.00,  0.00000,  0.00000,  0.00000,  0.00000,1,2,  81.00,   2,0.1818,   3,0.2727,   4,0.3636,   5,0.1818
   205,   217,'4 ', 2.50000E-3, 2.25000E-2, 4.00000E-2,  200.00,    0.00,    0.00,  0.00000,  0.00000,  0.00000,  0.00000,1,2,  80.00,   1,0.1667,   2,0.2500,   3,0.3333,   4,0.2500
   205,   218,'5 ', 2.50000E-3, 2.25000E-2, 4.00000E-2,  200.00,    0.00,    0.00,  0.00000,  0.00000,  0.00000,  0.00000,1,2,  59.00,   5,0.1650,   1,0.2186,   2,0.2643,   3,0.3521
   213,   214,'1 ', 0.00000E+0, 5.00000E-3, 0.00000E+0, 1250.00,    0.00,    0.00,  0.00000,  0.00000,  0.00000,  0.00000,1,2,   0.50,   2,0.1429,   3,0.2143,   4,0.2857,   5,0.3571
  3001,  3003,'1 ', 0.00000E+0, 4.00000E-3, 0.00000E+0,    0.00,    0.00,    0.00,  0.00000,  0.00000,  0.00000,  0.00000,1,2,  70.00,   1,0.1639,   2,0.2459,   3,0.3279,   4,0.2623
  3002,  3004,'1 ', 3.00000E-3, 2.70000E-2, 4.50000E-2,    0.00,    0.00,    0.00,  0.00000,  0.00000,  0.00000,  0.00000,1,2, 200.00,   5,0.1925,   1,0.2550,   2,0.3083,   3,0.2442
  3003,  3005,'1 ', 3.00000E-3, 2.70000E-2, 4.50000E-2,    0.00,    0.00,    0.00,  0.00000,  0.00000,  0.00000,  0.00000,1,2,  90.00,   2,0.2000,   3,0.3000,   4,0.4000,   5,0.1000
  3003,  3005,'2 ', 3.00000E-3, 2.70000E-2, 4.50000E-2,    0.00,    0.00,    0.00,  0.00000,  0.00000,  0.00000,  0.00000,1,2,  90.00,   1,0.1333,   2,0.2000,   3,0.2667,   4,0.4000
  3005,  3006,'1 ', 1.75000E-3, 1.50000E-2, 3.50000E-2,    0.00,    0.00,    0.00,  0.00000,  0.00000,  0.00000,  0.00000,1,2,  70.00,   5,0.1650,   1,0.2186,   2,0.2643,   3,0.3521
  3005,  3007,'1 ', 1.50000E-3, 1.25000E-2, 3.00000E-2,    0.00,    0.00,    0.00,  0.00000,  0.00000,  0.00000,  0.00000,1,2,  80.00,   2,0.1527,   3,0.2290,   4,0.3053,   5,0.3130
  3005,  3008,'1 ', 3.00000E-3, 2.50000E-2, 6.00000E-2,    0.00,    0.00,    0.00,  0.00000,  0.00000,  0.00000,  0.00000,0,2,  60.00,   1,0.1802,   2,0.2703,   3,0.3604,   4,0.1892
  3007,  3008,'1 ', 1.50000E-3, 1.25000E-2, 3.00000E-2,    0.00,    0.00,    0.00,  0.00000,  0.00000,  0.00000,  0.00000,1,2,  60.00,   5,0.1858,   1,0.2462,   2,0.4023,   3,0.1657
  3008,  3009,'1 ', 1.50000E-3, 1.25000E-2, 3.00000E-2,   25.00,   22.00,   18.00,  0.00000,  0.00000,  0.00000,  0.00000,1,2,  60.00,   1,0.1797,   2,0.2695,   3,0.3594,   4,0.1914
0 / END OF BRANCH DATA, BEGIN TRANSFORMER DATA
   101,   151,     0,'T1',2,2,1, 1.71470E-1,-1.02880E-1,2,'NUCA GSU    ',1,   1,0.3200,   2,0.3900,   3,0.1400,   4,0.1500,'Dyn1        '
 5.50000E-4, 4.55000E-2,  1200.00
21.6000,  21.600,   0.000,  1200.00,  1100.00,  1000.00, 1,    101,22.68000,20.52000, 1.05000, 0.95000,  25, 0, 0.00021, 0.00051,  0.000
500.000, 500.000
   102,   151,     0,'T2',2,1,2, 4.53750E+5, 2.60000E-3,2,'NUCB GSU    ',1,   1,0.2100,   2,0.2500,   3,0.2200,   4,0.3200,'Dyn1        '
 6.00000E-5, 3.80000E-3,  1210.00
21.6000,  21.600,   0.000,  1210.00,  1125.00,  1025.00, 1,    102,22.57200,20.62800, 1.04500, 0.95500,  27, 0, 0.00022, 0.00052,  0.000
500.000, 500.000
   152,   153,     0,'T3',2,1,1, 2.10000E-4,-1.20000E-4,2,'MID LTC     ',1,   1,0.3500,   2,0.2200,   3,0.2500,   4,0.1800,'YNyn0       '
 8.50000E-5, 3.87500E-3,   800.00
475.000, 500.000,   0.000,   800.00,   750.00,   700.00, 1,    154,525.0000,475.0000, 1.00000, 0.98000,  10, 0, 0.00023, 0.00053,  0.000
230.000, 230.000
   152,  3021,     0,'T4',1,2,2, 5.62500E+5, 2.80000E-3,2,'WDUM DC     ',1,   1,0.3900,   2,0.3200,   3,0.1500,   4,0.1400,'YNyn0       '
 6.50000E-4, 3.15000E-2,  1500.00
1.10000, 500.000,   0.000,  1500.00,  1400.00,  1350.00, 4,      0,22.57200,20.62800, 1.10000, 0.90000,  33, 2, 0.00000, 0.00000,  0.000
1.00000,  18.000
   152,  3022,     0,'T5',1,2,1, 4.00000E-4,-2.10000E-4,2,'EDUM DC     ',1,   1,0.2200,   2,0.2500,   3,0.2100,   4,0.3200,'YNyn0       '
 8.50000E-4, 3.70000E-2,  1510.00
1.10000, 500.000,   0.000,  1510.00,  1410.00,  1393.00, 4,      0, 1.10000, 0.90000, 1.10000, 0.90000,  33, 0, 0.00000, 0.00000,  0.000
1.00000,  18.000
   154,  9154,     0,'W1',1,1,1, 0.00000E+0, 0.00000E+0,2,'WTG1XMER    ',1,   1,1.0000,   0,1.0000,   0,1.0000,   0,1.0000,'YNd1        '
 0.00000E+0, 2.91665E-1,    12.00
1.00000,   0.000,   0.000,    12.00,     0.00,     0.00, 0,      0, 1.10000, 0.90000, 1.10000, 0.90000,  33, 0, 0.00000, 0.00000,  0.000
1.00000,   0.000
   201,   211,     0,'T6',2,1,2, 2.62500E+5, 3.00000E-3,2,'HYDRO_G XMER',1,   1,0.1400,   2,0.1500,   3,0.3200,   4,0.3900,'YNd1        '
 1.30000E-4, 6.71500E-3,   700.00
500.000, 500.000,   0.000,   700.00,   650.00,   611.00, 0,      0, 1.10000, 0.90000, 1.10000, 0.90000,   5, 0, 0.00000, 0.00000,  0.000
20.0000,  20.000
   203,   202,     0,'T7',1,2,1, 9.50000E-4,-4.60000E-4,1,'EAST PS     ',1,   1,0.2754,   2,0.3261,   3,0.2899,   4,0.1087,'YNyn0       '
 1.05000E-3, 2.70000E-2,   750.00
0.99000, 230.000,   0.143,   750.00,   700.00,   657.00, 3,      0,12.00000,-11.0000,-900.000,-950.000,  33, 1, 0.00000, 0.00000,  0.000
1.00000, 500.000
   204,   205,     0,'T8',1,2,1, 1.13000E-3,-5.20000E-4,2,'SUB LTC     ',1,   1,0.3019,   2,0.4245,   3,0.1321,   4,0.1415,'YNyn0       '
 1.85000E-3, 2.25000E-2,   800.00
1.03667, 500.000,   0.000,   800.00,   775.00,   717.00, 1,    205, 1.05000, 0.95000, 1.00000, 0.98000,  16, 0, 0.00024, 0.00054,  0.000
1.00000, 230.000
   204,  9204,     0,'W2',1,1,1, 0.00000E+0, 0.00000E+0,2,'WTG2XMER    ',1,   2,1.0000,   0,1.0000,   0,1.0000,   0,1.0000,'YNd1        '
 4.40000E-2, 3.30855E-1,     8.75
1.00000,   0.000,   0.000,     8.75,     0.00,     0.00, 0,      0, 1.10000, 0.90000, 1.10000, 0.90000,  33, 0, 0.00000, 0.00000,  0.000
1.00000,   0.000
   205,   206,     0,'T9',1,2,1, 1.13000E-3,-5.20000E-4,2,'URB TX      ',1,   1,0.1905,   2,0.4643,   3,0.1667,   4,0.1786,'YNd1        '
 8.00000E-4, 2.40000E-2,   900.00
1.01591, 230.000,   0.000,   900.00,   850.00,   799.00, 2,      0, 1.05000, 0.97500,-175.000,-250.000,  12, 0, 0.00000, 0.00000,  0.000
1.00000,  18.000
   205,   215,   208,'3 ',1,2,2, 3.42000E+4, 2.28000E-3,2,'3WNDSTAT3   ',3,   2,0.2540,   2,0.1746,   3,0.3333,   4,0.2381,'YN0yn0y0    '
 5.15000E-4, 5.00000E-2,   150.00, 6.90000E-4, 6.00000E-2,    20.00, 3.40000E-4, 3.75000E-2,    15.00,1.02605, -34.0513
1.00000, 230.000,   0.000,   150.00,   130.00,   120.00,-1,    215, 1.10000, 0.90000, 1.10000, 0.90000,  33, 0, 0.00025, 0.00064,  0.000
1.10000,  18.000,   0.000,    20.00,    18.00,    15.00,-2,      0, 1.20000, 0.90120,150.0000,80.00000,  33, 0, 0.00012, 0.00046,  0.000
1.00000, 230.000,   0.000,    15.00,    13.00,    10.00, 0,      0, 1.10000, 0.90000, 1.10000, 0.90000,  33, 0, 0.00000, 0.00000,  0.000
   209,   217,   218,'4 ',2,3,2, 4.18934E+1, 9.98336E-6,2,'3WNDSTAT4   ',4,   2,0.4671,   2,0.1250,   3,0.2379,   4,0.1700,'YN0yn0yn0   '
 1.14000E+5, 5.00050E-2,    30.00, 9.50000E+4, 4.50000E-2,    25.00, 1.33000E+5, 3.75000E-2,    35.00,0.99757, -33.9638
230.000, 230.000,   0.000,    30.00,    20.00,    10.00, 0,      0, 1.10000, 0.90000, 1.10000, 0.90000,  33, 0, 0.00031, 0.00784,  0.000
230.000, 230.000,   0.000,    25.00,    18.00,    12.00,-1,    217,253.0000,207.0000, 1.10000, 0.90000,  33, 0, 0.00021, 0.00862,  0.000
230.000, 230.000,   0.000,    35.00,    26.00,    14.00, 0,      0, 1.10000, 0.90000, 1.10000, 0.90000,  33, 0, 0.00024, 0.00394,  0.000
  3002, 93002,     0,'W3',1,1,1, 0.00000E+0, 0.00000E+0,2,'WTG3XMER    ',1,   5,1.0000,   0,1.0000,   0,1.0000,   0,1.0000,'YNd1        '
 0.00000E+0, 1.01351E+0,     3.70
1.00000,   0.000,   0.000,     3.70,     0.00,     0.00, 0,      0, 1.10000, 0.90000, 1.10000, 0.90000,  33, 0, 0.00000, 0.00000,  0.000
1.00000,   0.000
  3002,  3001,  3011,'1 ',1,1,1, 1.20000E-3,-4.20000E-3,2,'3WNDSTAT1   ',1,   1,0.1238,   2,0.2477,   3,0.1548,   5,0.4737,'YN0yn0d1    '
 1.00000E-4, 1.25000E-2,  1000.00, 1.50000E-4, 5.00000E-3,  1000.00, 2.00000E-4, 5.50000E-3,  1000.00,0.99026,   1.5688
1.01010, 500.000,   0.000,  1200.00,  1150.00,  1090.00, 1,   3002, 1.10020, 0.92000, 1.16000, 0.93000,  33, 0, 0.00013, 0.00016,  0.000
1.05000, 230.000,   0.000,  1250.00,  1175.00,  1112.00, 0,      0, 1.10010, 0.90000, 1.14000, 0.91000,  22, 0, 0.00012, 0.00015,  0.000
1.01000,  19.400,   0.000,  1280.00,  1200.00,  1157.00, 0,      0, 1.10000, 0.91000, 1.10000, 0.92000,  11, 0, 0.00011, 0.00014,  0.000
  3005,  3004,     0,'10',1,1,2, 2.06250E+5, 3.40000E-3,1,'WEST TX     ',1,   1,0.2645,   2,0.4959,   3,0.1157,   4,0.1240,'YNa0        '
 1.75000E-4, 4.82000E-3,   550.00
1.00000, 230.000,   0.000,   550.00,   500.00,   455.00, 0,      0, 1.10000, 0.90000, 1.10000, 0.90000,   3, 0, 0.00000, 0.00000,  0.000
1.00000, 500.000
  3008,  3018,     0,'11',2,1,2, 1.96875E+5, 3.50000E-3,2,'CATDOG_XMER ',1,   1,0.2051,   2,0.2500,   3,0.4487,   4,0.0962,'YNa0        '
 2.20000E-4, 6.38000E-3,   525.00
230.000, 230.000,   0.000,   525.00,   475.00,   423.00, 0,      0, 1.10000, 0.90000, 1.10000, 0.90000,  22, 2, 0.00000, 0.00000,  0.000
13.8000,  13.800
  3008,  3012,  3010,'2 ',2,1,1, 2.10000E-4,-1.20000E-4,1,'3WNDSTAT2   ',2,   5,0.8000,   3,0.0500,   2,0.1000,   1,0.0500,'D1y0y0      '
 2.57500E-3, 2.50000E-1,    20.00, 4.60000E-3, 4.00000E-1,    15.00, 1.87500E-3, 2.08335E-1,    25.00,0.98625, -26.0448
230.000, 230.000,   0.000,    20.00,    18.00,    14.00, 0,      0, 1.10000, 0.90000, 1.10000, 0.90000,  33, 0, 0.00000, 0.00000,  0.000
230.000, 230.000,   0.000,    15.00,    13.00,     9.00, 0,      0, 1.10000, 0.90000, 1.10000, 0.90000,  33, 0, 0.00000, 0.00000,  0.000
21.6000,  21.600,  30.000,    25.00,    19.00,    16.00, 0,      0, 1.10000, 0.90000, 1.10000, 0.90000,  33, 0, 0.00000, 0.00000,  0.000
0 / END OF TRANSFORMER DATA, BEGIN AREA DATA
   1,   101, -2800.000,    10.000,'CENTRAL     '
   2,   206, -1600.000,    10.000,'EAST        '
   3,   301,  2900.000,    55.000,'CENTRAL_DC  '
   4,   401,   300.000,    15.000,'EAST_COGEN1 '
   5,  3011,   900.000,    10.000,'WEST        '
   6,   402,   300.000,    20.000,'EAST_COGEN2 '
0 / END OF AREA DATA, BEGIN TWO-TERMINAL DC DATA
0 / END OF TWO-TERMINAL DC DATA, BEGIN VSC DC LINE DATA
0 / END OF VSC DC LINE DATA, BEGIN IMPEDANCE CORRECTION DATA
 1, -30.00, 1.10000, -24.00, 1.09100, -18.00, 1.08400, -12.00, 1.06300,  -6.00, 1.03200,   0.00, 1.00000,   6.00, 1.03000,  12.00, 1.06000,  18.00, 1.08000,  24.00, 1.09000,  30.00, 1.11000
 2,0.60000, 1.06000,0.70000, 1.05000,0.80000, 1.04000,0.90000, 1.03000,0.95000, 1.02000,1.00000, 1.01000,1.05000, 0.99000,1.10000, 0.98000,1.20000, 0.97000,1.30000, 0.96000,1.40000, 0.95000
0 / END OF IMPEDANCE CORRECTION DATA, BEGIN MULTI-TERMINAL DC DATA
0 / END OF MULTI-TERMINAL DC DATA, BEGIN MULTI-SECTION LINE DATA
   201,   204,'&1',2,   207
0 / END OF MULTI-SECTION LINE DATA, BEGIN ZONE DATA
   1,'NORTH_A1    '
   2,'MID_A1_A2_A5'
   3,'DISCNT_IN_A1'
   4,'SOUTH_A1_A5 '
   5,'ALL_A3      '
   6,'NORTH_A5    '
   7,'NORTH_A2    '
   8,'SOUTH_A2    '
   9,'ALL_A4_A6   '
0 / END OF ZONE DATA, BEGIN INTER-AREA TRANSFER DATA
   1,   2,'A',  1000.00
   1,   5,'B', -3800.00
   2,   4,'C',  -300.00
   2,   6,'E',  -300.00
   3,   5,'D',  2900.00
0 / END OF INTER-AREA TRANSFER DATA, BEGIN OWNER DATA
   1,'OWNER 1     '
   2,'OWNER 2     '
   3,'OWNER 3     '
   4,'OWNER 4     '
   5,'OWNER 5     '
0 / END OF OWNER DATA, BEGIN FACTS DEVICE DATA
0 / END OF FACTS DEVICE DATA, BEGIN SWITCHED SHUNT DATA
0 / END OF SWITCHED SHUNT DATA, BEGIN GNE DATA
0 / END OF GNE DATA, BEGIN INDUCTION MACHINE DATA
0 / END OF INDUCTION MACHINE DATA
Q
